Version 4
SHEET 1 880 680
SYMBOL AD7667 -928 48 R0
SYMATTR SpiceModel ""
SYMATTR InstName A1
