Version 4
SHEET 1 1036 724
SYMBOL AD8021 368 0 R0
SYMATTR InstName O1
SYMBOL TCD1304AP 784 -192 R0
SYMATTR InstName C1
SYMBOL AD7667 -608 464 R0
SYMATTR InstName A1
SYMBOL Atmega1284P\ Devlpmnt\ Brd1 992 240 R0
SYMATTR InstName M1
SYMBOL L78L05 -176 -304 R0
SYMATTR InstName L1
SYMBOL L79L05 -176 48 R0
SYMATTR InstName L2
SYMBOL LED 400 432 R0
SYMATTR InstName D1
