Version 4
SHEET 1 880 680
SYMBOL AD8021 208 160 R0
SYMATTR SpiceModel ""
SYMATTR InstName A1
SYMATTR Value -
