Version 4
SHEET 1 880 680
SYMBOL MAX232EIN -32 112 R0
SYMATTR InstName I1
