Version 4
SHEET 1 880 680
WIRE 160 112 -32 112
WIRE 160 128 160 112
WIRE 160 128 48 128
WIRE 192 128 160 128
WIRE -32 144 -32 112
WIRE 48 176 48 128
WIRE 192 224 192 208
WIRE 368 224 192 224
WIRE -112 256 -176 256
WIRE -64 256 -112 256
WIRE -176 272 -176 256
WIRE -176 272 -272 272
WIRE -64 272 -64 256
WIRE 48 272 48 256
WIRE 48 272 -64 272
WIRE 128 272 48 272
WIRE -112 288 -112 256
WIRE 368 288 368 224
WIRE -112 304 -112 288
WIRE -112 352 -112 336
WIRE -192 368 -208 368
WIRE 48 368 48 336
WIRE 48 368 16 368
WIRE 192 368 192 320
WIRE 192 368 48 368
WIRE 304 368 192 368
WIRE 48 384 48 368
WIRE -208 400 -208 368
WIRE -112 400 -112 352
WIRE -112 400 -208 400
WIRE 16 400 16 368
WIRE 16 400 -112 400
FLAG -272 192 0
FLAG -112 144 0
FLAG 48 384 0
FLAG -192 368 0
SYMBOL polcap 32 272 R0
SYMATTR InstName C1
SYMATTR Value 220µf
SYMBOL res 32 160 R0
SYMATTR InstName R1
SYMATTR Value 10k
SYMBOL voltage -272 288 R180
WINDOW 123 0 0 Left 2
WINDOW 39 24 106 Left 2
WINDOW 3 24 6 Left 2
SYMATTR Value PULSE(0 500m 10n .1n .1n 10n 50n)
SYMATTR InstName V1
SYMBOL voltage -16 144 R90
WINDOW 3 24 26 Left 2
WINDOW 123 0 0 Left 2
WINDOW 39 24 106 Left 2
SYMATTR Value 1.83
SYMATTR InstName V2
SYMBOL voltage -304 368 R270
WINDOW 3 24 26 Left 2
WINDOW 123 0 0 Left 2
WINDOW 39 24 106 Left 2
SYMATTR Value -1.83
SYMATTR InstName V3
SYMBOL npn 128 224 R0
SYMATTR InstName Q1
SYMATTR Value 2N2222
SYMBOL res 176 112 R0
SYMATTR InstName R2
SYMATTR Value 4.7k
SYMBOL AutoGenerated\\V130L20C -112 320 R90
SYMATTR InstName U1
SYMBOL LED 304 384 R270
WINDOW 0 72 32 VTop 2
WINDOW 3 0 32 VBottom 2
SYMATTR InstName D1
SYMATTR Value LXHL-BW02
SYMBOL res 352 272 R0
SYMATTR InstName R3
SYMATTR Value 1.5k
TEXT 168 120 Left 2 ;+
TEXT -200 424 Left 2 !.tran 50n
TEXT 256 240 Left 2 ;OUT
TEXT -288 128 Left 1 !.inc V130L20C.lib
TEXT 208 -80 Left 2 !**********\n*SRC=V130L20C;V130L20C;MOV;;\n*SYM=MOV\n.SUBCKT V130L20C 1 7\n*HARRIS V130LA20C\n* (I1,V1)=(1.00E-003,2.50E+002)\n* (I2,V2)=(1.00E+003,4.25E+002)\n* Inom = 3.65E+003\n* Upturn exp = 2\n* %Bulk voltage drop = 1.00E+000\nLIN 1 2 5.00E-009H\nB1 5 0 V = (ABS(V(2)-V(3)))*5.27E-002\nBUPTURN 100 0 V = ABS(I(VC)) < 3.65E+003 ? 26 : 26 - ((ABS(I(VC))/3.65E+003)-1)^2\nB2 6 0 V = 1E-32 * (V(5)^V(100))\nB3 2 3 I = V(2,3) > 0 ? V(6) : -1 * V(6)\nROFF 2 3 1G\nC1 2 3 1.60E-009\nRON 3 4 4.25E-003\nVC 4 7\n.ENDS
